[General]
network = RingFdlOBS
sim-time-limit = 5s

# Output Control
cmdenv-express-mode = true
cmdenv-autoflush = true
**.vector-recording = false
**.scalar-recording = true

# Disable Network Configurator
**.networkLayer.configurator.networkConfiguratorModule = ""

# ============ Network Parameters (9-Satellite Constellation) ============
# Note: lambdasPerISL will be defined in each Config section below

# ============ Core Node Configuration (Inter-Satellite Laser Communication) ============
**.sat*.coreSwitch.inputColours = ""
**.sat*.coreSwitch.outputColours = ""
**.sat*.coreSwitch.**.guardTime = 0.00001s        # 10μs (Satellite Jitter)
**.sat*.coreSwitch.**.BCPProcessingDelay = 0.00001s
**.sat*.coreSwitch.**.dataRate = 400Gbps
**.sat*.coreSwitch.**.reportFile = "results/burst_stats.txt"

# Note: Port configurations (lambdasPerInPort/lambdasPerOutPort) are defined in each Config section

# OE/EO Conversion
**.OEConversionDelay = 0s
**.EOConversionDelay = 0s

# ============ Edge Node Configuration ============
**.sat*.edgeRouter.outColours = ""
**.sat*.edgeRouter.**.dispatcherRules = "DispatcherRules.dat"
**.sat*.edgeRouter.**.numFileBurstifiers = 0
**.sat*.edgeRouter.**.numPacketBurstifiers = 8    # Send to other 8 satellites

# Optical Burst Assembler Optimization Parameters
**.packetBurstifier[*].timeout = 0.005s
**.packetBurstifier[*].maxSize = 50000B
**.packetBurstifier[*].numPackets = 50
**.packetBurstifier[*].minOffset = 0.015s     #  15ms
**.packetBurstifier[*].maxOffset = 0.05s      #  50ms
**.packetBurstifier[*].minSizeWithPadding = 64B
**.packetBurstifier[*].overflowLastPacket = true
**.packetBurstifier[*].cteHeader = 8B
**.packetBurstifier[*].varHeader = 1B

# Configure Destinations for all satellites (Each sends to other 8 satellites)
# Sat1 destinations
**.sat1.edgeRouter.**.packetBurstifier[0].destLabel = 2
**.sat1.edgeRouter.**.packetBurstifier[1].destLabel = 3
**.sat1.edgeRouter.**.packetBurstifier[2].destLabel = 4
**.sat1.edgeRouter.**.packetBurstifier[3].destLabel = 5
**.sat1.edgeRouter.**.packetBurstifier[4].destLabel = 6
**.sat1.edgeRouter.**.packetBurstifier[5].destLabel = 7
**.sat1.edgeRouter.**.packetBurstifier[6].destLabel = 8
**.sat1.edgeRouter.**.packetBurstifier[7].destLabel = 9

# Sat2 destinations
**.sat2.edgeRouter.**.packetBurstifier[0].destLabel = 1
**.sat2.edgeRouter.**.packetBurstifier[1].destLabel = 3
**.sat2.edgeRouter.**.packetBurstifier[2].destLabel = 4
**.sat2.edgeRouter.**.packetBurstifier[3].destLabel = 5
**.sat2.edgeRouter.**.packetBurstifier[4].destLabel = 6
**.sat2.edgeRouter.**.packetBurstifier[5].destLabel = 7
**.sat2.edgeRouter.**.packetBurstifier[6].destLabel = 8
**.sat2.edgeRouter.**.packetBurstifier[7].destLabel = 9

# Sat3 destinations
**.sat3.edgeRouter.**.packetBurstifier[0].destLabel = 1
**.sat3.edgeRouter.**.packetBurstifier[1].destLabel = 2
**.sat3.edgeRouter.**.packetBurstifier[2].destLabel = 4
**.sat3.edgeRouter.**.packetBurstifier[3].destLabel = 5
**.sat3.edgeRouter.**.packetBurstifier[4].destLabel = 6
**.sat3.edgeRouter.**.packetBurstifier[5].destLabel = 7
**.sat3.edgeRouter.**.packetBurstifier[6].destLabel = 8
**.sat3.edgeRouter.**.packetBurstifier[7].destLabel = 9

# Sat4 destinations
**.sat4.edgeRouter.**.packetBurstifier[0].destLabel = 1
**.sat4.edgeRouter.**.packetBurstifier[1].destLabel = 2
**.sat4.edgeRouter.**.packetBurstifier[2].destLabel = 3
**.sat4.edgeRouter.**.packetBurstifier[3].destLabel = 5
**.sat4.edgeRouter.**.packetBurstifier[4].destLabel = 6
**.sat4.edgeRouter.**.packetBurstifier[5].destLabel = 7
**.sat4.edgeRouter.**.packetBurstifier[6].destLabel = 8
**.sat4.edgeRouter.**.packetBurstifier[7].destLabel = 9

# Sat5 destinations
**.sat5.edgeRouter.**.packetBurstifier[0].destLabel = 1
**.sat5.edgeRouter.**.packetBurstifier[1].destLabel = 2
**.sat5.edgeRouter.**.packetBurstifier[2].destLabel = 3
**.sat5.edgeRouter.**.packetBurstifier[3].destLabel = 4
**.sat5.edgeRouter.**.packetBurstifier[4].destLabel = 6
**.sat5.edgeRouter.**.packetBurstifier[5].destLabel = 7
**.sat5.edgeRouter.**.packetBurstifier[6].destLabel = 8
**.sat5.edgeRouter.**.packetBurstifier[7].destLabel = 9

# Sat6 destinations
**.sat6.edgeRouter.**.packetBurstifier[0].destLabel = 1
**.sat6.edgeRouter.**.packetBurstifier[1].destLabel = 2
**.sat6.edgeRouter.**.packetBurstifier[2].destLabel = 3
**.sat6.edgeRouter.**.packetBurstifier[3].destLabel = 4
**.sat6.edgeRouter.**.packetBurstifier[4].destLabel = 5
**.sat6.edgeRouter.**.packetBurstifier[5].destLabel = 7
**.sat6.edgeRouter.**.packetBurstifier[6].destLabel = 8
**.sat6.edgeRouter.**.packetBurstifier[7].destLabel = 9

# Sat7 destinations
**.sat7.edgeRouter.**.packetBurstifier[0].destLabel = 1
**.sat7.edgeRouter.**.packetBurstifier[1].destLabel = 2
**.sat7.edgeRouter.**.packetBurstifier[2].destLabel = 3
**.sat7.edgeRouter.**.packetBurstifier[3].destLabel = 4
**.sat7.edgeRouter.**.packetBurstifier[4].destLabel = 5
**.sat7.edgeRouter.**.packetBurstifier[5].destLabel = 6
**.sat7.edgeRouter.**.packetBurstifier[6].destLabel = 8
**.sat7.edgeRouter.**.packetBurstifier[7].destLabel = 9

# Sat8 destinations
**.sat8.edgeRouter.**.packetBurstifier[0].destLabel = 1
**.sat8.edgeRouter.**.packetBurstifier[1].destLabel = 2
**.sat8.edgeRouter.**.packetBurstifier[2].destLabel = 3
**.sat8.edgeRouter.**.packetBurstifier[3].destLabel = 4
**.sat8.edgeRouter.**.packetBurstifier[4].destLabel = 5
**.sat8.edgeRouter.**.packetBurstifier[5].destLabel = 6
**.sat8.edgeRouter.**.packetBurstifier[6].destLabel = 7
**.sat8.edgeRouter.**.packetBurstifier[7].destLabel = 9

# Sat9 destinations
**.sat9.edgeRouter.**.packetBurstifier[0].destLabel = 1
**.sat9.edgeRouter.**.packetBurstifier[1].destLabel = 2
**.sat9.edgeRouter.**.packetBurstifier[2].destLabel = 3
**.sat9.edgeRouter.**.packetBurstifier[3].destLabel = 4
**.sat9.edgeRouter.**.packetBurstifier[4].destLabel = 5
**.sat9.edgeRouter.**.packetBurstifier[5].destLabel = 6
**.sat9.edgeRouter.**.packetBurstifier[6].destLabel = 7
**.sat9.edgeRouter.**.packetBurstifier[7].destLabel = 8

# Sender Configuration
**.sender.BCPSize = 256B
**.sender.guardTime = 0.00001s
**.sender.dataRate = 400Gbps
**.sender.maxSchedBurstSize = 0
**.sender.maxSchedBurstElems = 0
**.sender.testing = false

# ============ Host Configuration ============
**.sat*.host.numTcpApps = 0
**.sat*.host.numUdpApps = 1
**.sat*.host.networkLayer.ip.procDelay = 0

# IP Configuration
**.ip.procDelay = 0
**.arp.cacheTimeout = 100s
**.eth[*].mac.txrate = 100Gbps
**.ppp[*].queue.frameCapacity = 100000
**.eth[*].queue.frameCapacity = 100000

# ============ Traffic Configuration (Optical Burst Performance Test) ============
# Host1 (in Sat1) -> Host9 (in Sat9) (Diagonal furthest, 4 hops)
**.sat1.host.udpApp[0].typename = "UDPBasicApp"
**.sat1.host.udpApp[0].destAddresses = "sat9.host"
**.sat1.host.udpApp[0].destPort = 5000
**.sat1.host.udpApp[0].messageLength = 1000B
**.sat1.host.udpApp[0].sendInterval = exponential(0.01s)
**.sat1.host.udpApp[0].startTime = 0.1s

# Other hosts receive
**.sat2.host.udpApp[0].typename = "UDPSink"
**.sat2.host.udpApp[0].localPort = 5000

**.sat3.host.udpApp[0].typename = "UDPSink"
**.sat3.host.udpApp[0].localPort = 5000

**.sat4.host.udpApp[0].typename = "UDPSink"
**.sat4.host.udpApp[0].localPort = 5000

**.sat5.host.udpApp[0].typename = "UDPSink"
**.sat5.host.udpApp[0].localPort = 5000

**.sat6.host.udpApp[0].typename = "UDPSink"
**.sat6.host.udpApp[0].localPort = 5000

**.sat7.host.udpApp[0].typename = "UDPSink"
**.sat7.host.udpApp[0].localPort = 5000

**.sat8.host.udpApp[0].typename = "UDPSink"
**.sat8.host.udpApp[0].localPort = 5000

**.sat9.host.udpApp[0].typename = "UDPSink"
**.sat9.host.udpApp[0].localPort = 5000

# ============================================================================
# Include Configuration Files
# ============================================================================
# Scenario definitions (different wavelength configurations)
include scenarios.ini

# Optimization experiments (extends base scenarios)
include experiments.ini


